Sistemas/38b.pwf
TITU
38-NODE SYSTEM                                                     
DCTE
(Mn) ( Val) (Mn) ( Val) (Mn) ( Val) (Mn) ( Val) (Mn) ( Val) (Mn) ( Val) 
BASE  100.  DASE   100. TEPA  .1E-5 EXST  .4E-5 TETP     5. TBPA     5.
TLPP     1. TEPR  .1E-5 QLST  .4E-5 TLPR     .1 TLPQ     2. TSBZ    .01
TSBA     5. ASTP    .05 VSTP     5. TLVC     .5 TLTC    .01 TSFR  .1E-7
ZMAX   500. TLPV     .5 VDVM   200. VDVN    40. TUDC   .001 TADC    .01
PGER    30. TPST  .2E-5 VFLD    70. ZMIN   .001 HIST    470 LFIT     10
ACIT     30 LFCV      1 DCIT     10 VSIT     10 LPIT     50 LFLP     10
PDIT     10 LCRT     96 LPRT     60 CSTP     5. ASDC     1.
ICIT    500 DMAX      5 FDIV     2. ICMN    .05 VART     5. TSTP     33
ICMV     .5 APAS    90. CPAR    70. VAVT     2. VAVF     5. VMVF    15.
VPVT     2. VPVF     5. VPMF    10. VSVF    20. VINF     1. VSUP     1.
TLSI     0. NDIR    20. STTR     5. TRPT   100. STIR     1. BFPO     1.
99999
DBAR
(Num)OETGb(   nome   )Gl( V)( A)( Pg)( Qg)( Qn)( Qm)(Bc  )( Pl)( Ql)( Sh)Are(Vf)M(1)(2)(3)(4)(5)(6)(7)(8)(9)(10
    1 L0  BARRA----001 A 9600.00                                           11000                                   
    2 L0  BARRA----002 A 9600.00                          10.0 60.00       11000                                   
    3 L0  BARRA----003 A 9600.00                          9.0  4.00        11000                                   
    4 L0  BARRA----004 A 9600.00                          12.0 8.00        11000                                   
    5 L0  BARRA----005 A 9600.00                          6.0  3.00        11000                                   
    6 L0  BARRA----006 A 9600.00                          6.0  2.00        11000
    7 L0  BARRA----007 A 9600.00                          20.0 10.00       11000                                
    8 L0  BARRA----008 A 9600.00                          20.0 10.00       11000
    9 L0  BARRA----009 A 9600.00                          6.0  2.00        11000
   10 L0  BARRA----010 A 9600.00                          6.0  2.00        11000
   11 L0  BARRA----011 A 9600.00                          4.5  3.00        11000
   12 L0  BARRA----012 A10000.00                          6.0  3.505       11000
   13 L0  BARRA----013 A 9600.00                          6.0  3.505       11000
   14 L0  BARRA----014 A 9600.00                          12.0 8.00        11000
   15 L0  BARRA----015 A 9600.00                          6.0  1.00        11000
   16 L0  BARRA----016 A 9600.00                          6.0  2.00        11000
   17 L0  BARRA----017 A 9600.00                          6.0  2.00        11000
   18 L0  BARRA----018 A 9600.00                          9.0  4.00        11000
   19 L0  BARRA----019 A 9600.00                          9.0  4.00        11000
   20 L0  BARRA----020 A 9600.00                          9.0  4.00        11000
   21 L0  BARRA----021 A 9600.00                          9.0  4.00        11000
   22 L0  BARRA----022 A 9600.00                          9.0  4.00        11000
   23 L0  BARRA----023 A 9600.00                          9.0  5.00        11000
   24 L0  BARRA----024 A 9600.00                          42.0 20.00       11000
   25 L0  BARRA----025 A 9600.00                          42.0 20.00       11000
   26 L0  BARRA----026 A 9600.00                          6.0  2.505       11000
   27 L0  BARRA----027 A 9600.00                          6.0  2.505       11000
   28 L0  BARRA----028 A 9600.00                          6.0  2.00        11000
   29 L0  BARRA----029 A 9600.00                          12.0 7.00        11000
   30 L0  BARRA----030 A 9600.00                          20.0 60.00       11000
   31 L0  BARRA----031 A 9600.00                          15.0 7.00        11000
   32 L0  BARRA----032 A 9600.00                          21.0 10.00       11000
   33 L0  BARRA----033 A 9600.00                          6.0  4.00        11000
(Num)OETGb(   nome   )Gl( V)( A)( Pg)( Qg)( Qn)( Qm)(Bc  )( Pl)( Ql)( Sh)Are(Vf)M(1)(2)(3)(4)(5)(6)(7)(8)(9)(10
   34 L2  BARRA----034 A10100.00177.5     -180.180.  33                    11000
   35 L1  BARRA----035 A10100.0088.79     -90. 90.   33                    11000
   36 L1  BARRA----036 A10100.0029.59     -30. 30.   33                    11000
   37 L1  BARRA----037 A10100.0059.18     -60. 60.   33                    11000
   38 L1  BARRA----038 A10100.0029.59     -30. 30.   33                    11000                                                          
99999
DLIN                                                                                                     
(De )d O d(Pa )NcEP ( R% )( X% )(Mvar)(Tap)(Tmn)(Tmx)(Phs)(Bc  )(Cn)(Ce)Ns(Cq)(1)(2)(3)(4)(5)(6)(7)(8)(9)
    1         2 1   0.05740.0293   0.                           460.                                                                                                             
    2         3 1   0.307 0.1564   0.                           410.                                                                             
    3         4 1   0.22790.1161   0.                           290.                                                                               
    4         5 1   0.23730.1209   0.                           290.                                                                              
    5         6 1   0.51000.4402   0.                           290.
    6         7 1   0.11660.3853   0.                           150.
    7         8 1   0.443 0.1464   0.                           105.
    8         9 1   0.64130.4608   0.                           105.
    9        10 1   0.65010.4608   0.                           105.
   10        11 1   0.12240.0405   0.                           105.
   11        12 1   0.23310.0771   0.                           105.
   12        13 1   0.91410.7192   0.                           050.
   13        14 1   0.33720.4439   0.                           450.
   14        15 1   0.36800.3275   0.                           030.
   15        16 1   0.46470.3394   0.                           250.
   16        17 1   0.80261.0716   0.                           250.
   17        18 1   0.45580.3574   0.                           010.
    2        19 1   0.10210.0974   0.                           050.
   19        20 1   0.93660.8440   0.                           050.
   20        21 1   0.25500.2979   0.                           210.
   21        22 1   0.44140.5836   0.                           110.
    3        23 1   0.28090.1920   0.                           105.
   23        24 1   0.55920.4415   0.                           105.
   24        25 1   0.55790.4366   0.                           050.
    6        26 1   0.12640.0644   0.                           150.
   26        27 1   0.17700.0901   0.                           150.
   27        28 1   0.65940.5814   0.                           150.
   28        29 1   0.50070.4362   0.                           150.
   29        30 1   0.31600.1610   0.                           150.
   30        31 1   0.60670.5996   0.                           050.
   31        32 1   0.19330.2253   0.                           050.
   32        33 1   0.21230.3301   0.                           010.
    8        34 1   1.24531.2453      1.000                     050.
   29        35 1   1.24531.2453      1.000                     050.
   12        36 1   1.24531.2453      1.000                     050.
   22        37 1   0.31130.3113      1.000                     050.
   25        38 1   0.31130.3113      1.000                     010.
99999
(AO RODAS NO MATLAB COMENTAR O TÓPICO ABAIXO E AO RODAR NO ANAREDE DESCOMENTA
(DBAR
(Num)OETGb(   nome   )Gl( V)( A)( Pg)( Qg)( Qn)( Qm)(Bc  )( Pl)( Ql)( Sh)Are(Vf)M(1)(2)(3)(4)(5)(6)(7)(8)(9)(10
(    1M 0                          0.   0.   0.   0.
(   34M 2
(   33M                   1.0
(99999
(DEFINE A PARTICIPAÇÃO DE CADA GERADOR NA QUANTIDADE DE POTÊNCIA ATIVA/REATIVA NECESSÁRIO PARA O CONTROLE DE TENSÃO 
DGER IMPR
(No ) O (Pmn ) (Pmx ) ( Fp) (FpR) (FPn) (Fa) (Fr) (Ag) ( Xq) (Sno) ( R%)
(    1       0.  999.9                                             
   34       0.  999.9 46.15 46.15                                 
   35       0.  999.9 23.08 23.08                                
   36       0.  999.9 7.69  7.69                                  
   37       0.  999.9 15.39 15.38                                    
   38       0.  999.9 7.69  7.69                                  
99999

(EXECUTAR O MET CONTINUADO
(DINC
((tp) (no ) C (tp) (no ) C (tp) (no ) C (tp) (no ) O ( P ) ( Q ) (Pmx) (Qmx)
(AREA   1                                              1.    1. 
(99999

((CASO A                 
((EXIC NEWT QLIM RGER
((CASO B
(EXIC NEWT QLIM RGER CREM


FIM




(DFRQ IMPR
(No O (Nbr) fBase (fmin (fmax (       IDENTIFICACAO DA ILHA                )
(  1       1 60.00 59.50 60.50      Teste 
(99999 
(EXLF NEWT RFRP RBAR FREQ RGER
(FIM   
(DANC
(Ar ( Fp ) ( Fq ) ( Fs )
(  1   5.      5.
(99999
(EXLF NEWT RFRP RBAR FREQ RGER 
(1057
(#10331                                                                                      
                                                                                                                                          






                                                                                                   